Version 4
SHEET 1 1416 1108
WIRE -1248 -208 -1248 -224
WIRE -2192 -176 -2272 -176
WIRE -2064 -176 -2112 -176
WIRE -2000 -176 -2064 -176
WIRE -1840 -176 -1920 -176
WIRE -1328 -112 -1344 -112
WIRE -1248 -112 -1248 -128
WIRE -1248 -112 -1328 -112
WIRE -2064 -96 -2064 -176
WIRE -1984 -96 -2064 -96
WIRE -1248 -96 -1248 -112
WIRE -1840 -80 -1840 -176
WIRE -1840 -80 -1920 -80
WIRE -1984 -64 -2016 -64
WIRE -1840 -32 -1840 -80
WIRE -1472 -32 -1472 -96
WIRE -1248 0 -1248 -16
WIRE -2016 16 -2016 -64
WIRE -1472 80 -1472 48
WIRE -1840 96 -1840 48
WIRE -1728 96 -1728 -32
WIRE -1728 96 -1840 96
FLAG -1248 -224 Vcc
FLAG -1248 0 Vee
FLAG -1328 -112 0
FLAG -1472 80 0
FLAG -1472 -96 test
FLAG -1952 -112 Vee
FLAG -1952 -48 Vcc
FLAG -2272 -176 test
FLAG -2016 16 0
FLAG -1728 -32 Vcc
SYMBOL voltage -1248 -224 R0
WINDOW 123 0 0 Left 0
WINDOW 39 0 0 Left 0
SYMATTR InstName V1
SYMATTR Value 15
SYMBOL voltage -1248 -112 R0
WINDOW 123 0 0 Left 0
WINDOW 39 0 0 Left 0
SYMATTR InstName V2
SYMATTR Value 15
SYMBOL voltage -1472 -48 R0
WINDOW 123 0 0 Left 0
WINDOW 39 0 0 Left 0
SYMATTR InstName V3
SYMATTR Value SINE(0 5 30k)
SYMBOL Opamps\\OP07 -1952 -16 M180
SYMATTR InstName U1
SYMBOL res -2096 -192 R90
WINDOW 0 0 56 VBottom 2
WINDOW 3 32 56 VTop 2
SYMATTR InstName R1
SYMATTR Value 1k
SYMBOL res -1904 -192 R90
WINDOW 0 0 56 VBottom 2
WINDOW 3 32 56 VTop 2
SYMATTR InstName R2
SYMATTR Value 2k
SYMBOL res -1856 -48 R0
SYMATTR InstName R3
SYMATTR Value 30k
TEXT -1312 192 Left 2 !.tran 0 19.3m 19m 0.001m
