Version 4
SHEET 1 1732 1272
WIRE 208 -144 208 -176
WIRE -2096 -48 -2096 -80
WIRE 208 -32 208 -64
WIRE 240 -32 208 -32
WIRE 640 -32 320 -32
WIRE -2368 16 -2368 -32
WIRE -1104 48 -1296 48
WIRE -976 48 -1104 48
WIRE -784 48 -976 48
WIRE -2096 64 -2096 32
WIRE -2016 64 -2096 64
WIRE -976 64 -976 48
WIRE -784 64 -784 48
WIRE -2096 80 -2096 64
WIRE -1296 96 -1296 48
WIRE 416 96 272 96
WIRE 512 96 416 96
WIRE -880 112 -912 112
WIRE -848 112 -880 112
WIRE 272 128 272 96
WIRE -2368 144 -2368 96
WIRE -1104 144 -1104 48
WIRE 416 176 416 96
WIRE -2096 192 -2096 160
WIRE -1568 192 -1952 192
WIRE -1296 192 -1296 176
WIRE -1296 192 -1424 192
WIRE -1200 192 -1296 192
WIRE -1568 208 -1568 192
WIRE -880 208 -880 112
WIRE -784 208 -784 160
WIRE -784 208 -880 208
WIRE -1424 224 -1424 192
WIRE 272 224 272 208
WIRE 352 224 272 224
WIRE -784 240 -784 208
WIRE -1104 256 -1104 224
WIRE -880 256 -1104 256
WIRE 272 256 272 224
WIRE -1280 272 -1296 272
WIRE -1104 272 -1104 256
WIRE -1568 288 -1568 272
WIRE -1568 288 -1952 288
WIRE 512 288 512 96
WIRE -1424 320 -1424 304
WIRE -1280 320 -1280 272
WIRE -1280 320 -1424 320
WIRE -976 320 -976 160
WIRE -976 320 -1040 320
WIRE -1200 336 -1200 192
WIRE -1200 336 -1424 336
WIRE 416 336 416 272
WIRE 448 336 416 336
WIRE -784 352 -784 320
WIRE 272 352 272 320
WIRE -976 384 -976 320
WIRE -288 400 -352 400
WIRE -1424 432 -1424 416
WIRE -1280 432 -1280 320
WIRE -1280 432 -1424 432
WIRE -1104 432 -1104 368
WIRE -1104 432 -1280 432
WIRE -1040 432 -1104 432
WIRE -880 432 -880 256
WIRE -672 432 -880 432
WIRE -560 448 -608 448
WIRE -384 448 -560 448
WIRE -336 448 -384 448
WIRE 0 448 -240 448
WIRE -1952 464 -1952 288
WIRE -1952 464 -2032 464
WIRE -1872 464 -1952 464
WIRE -1280 464 -1280 432
WIRE -672 464 -736 464
WIRE 208 464 208 -32
WIRE 208 464 64 464
WIRE 272 464 272 416
WIRE 272 464 208 464
WIRE 512 464 512 384
WIRE 640 464 640 -32
WIRE 640 464 512 464
WIRE -2032 480 -2032 464
WIRE -1872 480 -1872 464
WIRE 0 480 -16 480
WIRE 640 480 640 464
WIRE -2224 496 -2224 448
WIRE -1696 496 -1696 448
WIRE -288 496 -416 496
WIRE -2256 512 -2512 512
WIRE -1616 512 -1616 448
WIRE -1616 512 -1664 512
WIRE 272 512 272 464
WIRE -2096 528 -2192 528
WIRE -1728 528 -1808 528
WIRE -976 528 -976 480
WIRE -128 528 -176 528
WIRE -16 528 -16 480
WIRE -16 528 -48 528
WIRE 96 528 -16 528
WIRE 208 528 208 464
WIRE 208 528 176 528
WIRE -2256 544 -2288 544
WIRE -1616 544 -1664 544
WIRE -736 560 -736 464
WIRE -560 560 -560 448
WIRE -560 560 -736 560
WIRE 512 560 512 464
WIRE -832 592 -832 576
WIRE -1280 608 -1280 544
WIRE -352 608 -352 400
WIRE -288 608 -352 608
WIRE 448 608 416 608
WIRE -2288 624 -2288 544
WIRE -2032 624 -2032 576
WIRE -2032 624 -2288 624
WIRE -1872 624 -1872 576
WIRE -1616 624 -1616 544
WIRE -1616 624 -1872 624
WIRE -976 624 -976 592
WIRE 272 624 272 576
WIRE -2512 656 -2512 512
WIRE -384 656 -384 448
WIRE -336 656 -384 656
WIRE -160 656 -240 656
WIRE -2032 672 -2032 624
WIRE -1872 672 -1872 624
WIRE -48 672 -96 672
WIRE -16 672 -48 672
WIRE 416 672 416 608
WIRE -832 688 -832 672
WIRE -832 688 -912 688
WIRE -160 688 -224 688
WIRE -832 704 -832 688
WIRE -416 704 -416 496
WIRE -288 704 -416 704
WIRE 272 720 272 688
WIRE 352 720 272 720
WIRE 272 752 272 720
WIRE -2512 784 -2512 736
WIRE -224 784 -224 688
WIRE -176 784 -224 784
WIRE -48 784 -48 672
WIRE -48 784 -96 784
WIRE -2032 800 -2032 752
WIRE -1872 800 -1872 752
WIRE -832 816 -832 784
WIRE -224 832 -224 784
WIRE -16 848 -16 672
WIRE -16 848 -144 848
WIRE 272 864 272 832
WIRE 416 864 416 768
WIRE 416 864 272 864
WIRE 512 864 512 656
WIRE 512 864 416 864
WIRE -2512 912 -2512 864
WIRE -144 912 -144 848
WIRE -128 912 -144 912
WIRE -32 912 -64 912
WIRE 112 912 -32 912
WIRE -32 928 -32 912
WIRE 240 928 176 928
WIRE 112 944 80 944
WIRE -224 960 -224 912
WIRE 80 992 80 944
WIRE -32 1040 -32 1008
FLAG -912 688 0
FLAG -832 816 Vee
FLAG -832 576 Vcc
FLAG -2368 144 0
FLAG -2368 -32 Vcc2
FLAG -2032 800 0
FLAG -1872 800 0
FLAG -1616 448 ref
FLAG -2224 560 Vcc2
FLAG -1696 560 Vcc2
FLAG -1952 192 Vcc2
FLAG -1296 48 Vcc
FLAG -1280 608 0
FLAG -976 624 0
FLAG -784 352 0
FLAG -288 400 Vcc
FLAG -640 480 Vcc
FLAG -176 528 0
FLAG 32 496 Vcc
FLAG 32 432 Vee
FLAG 416 864 Vee
FLAG 416 96 Vcc
FLAG 640 560 0
FLAG -32 1040 0
FLAG -2224 448 0
FLAG -1696 448 0
FLAG -640 416 0
FLAG -288 496 Vee
FLAG -2512 912 ref
FLAG -128 704 Vcc
FLAG -128 640 Vee
FLAG -224 960 0
FLAG -2096 192 0
FLAG -2096 -80 Vcc2
FLAG -2016 64 ref
FLAG 640 464 Audio
FLAG 208 -176 0
FLAG 80 992 0
FLAG 240 928 Data
SYMBOL voltage -832 576 R0
WINDOW 123 0 0 Left 0
WINDOW 39 0 0 Left 0
SYMATTR InstName V2
SYMATTR Value 12
SYMBOL voltage -832 688 R0
WINDOW 123 0 0 Left 0
WINDOW 39 0 0 Left 0
SYMATTR InstName V3
SYMATTR Value 12
SYMBOL voltage -2368 0 R0
WINDOW 123 0 0 Left 0
WINDOW 39 0 0 Left 0
SYMATTR InstName V6
SYMATTR Value 15
SYMBOL npn -2096 480 R0
SYMATTR InstName Q3
SYMATTR Value BD135P
SYMBOL npn -1808 480 M0
SYMATTR InstName Q4
SYMATTR Value BD135P
SYMBOL res -2048 656 R0
SYMATTR InstName R1
SYMATTR Value 10
SYMBOL res -1888 656 R0
SYMATTR InstName R2
SYMATTR Value 5
SYMBOL voltage -2512 640 R0
WINDOW 123 0 0 Left 0
WINDOW 39 0 0 Left 0
SYMATTR InstName V1
SYMATTR Value PULSE(0 1 1n 1n 1n 15.15u 30.30u)
SYMBOL voltage -2512 768 R0
WINDOW 123 0 0 Left 0
WINDOW 39 0 0 Left 0
SYMATTR InstName V12
SYMATTR Value SINE(0 1 5k)
SYMBOL res -1312 80 R0
SYMATTR InstName R3
SYMATTR Value 1k
SYMBOL res -1296 448 R0
SYMATTR InstName R4
SYMATTR Value 100k
SYMBOL npn -1040 384 R0
SYMATTR InstName Q5
SYMATTR Value 2N3904
SYMBOL npn -1040 272 M0
SYMATTR InstName Q6
SYMATTR Value 2N3904
SYMBOL zener -960 592 R180
WINDOW 0 24 64 Left 2
WINDOW 3 24 0 Left 2
SYMATTR InstName D2
SYMATTR Value 1N750
SYMATTR Description Diode
SYMATTR Type diode
SYMBOL res -1120 128 R0
SYMATTR InstName R5
SYMATTR Value 100k
SYMBOL pnp -912 160 R180
SYMATTR InstName Q7
SYMATTR Value 2N3906
SYMBOL pnp -848 160 M180
SYMATTR InstName Q8
SYMATTR Value 2N3906
SYMBOL res -800 224 R0
SYMATTR InstName R6
SYMATTR Value 22k
SYMBOL BandPass2 -288 656 R0
SYMATTR InstName X2
SYMBOL res -48 912 R0
SYMATTR InstName R7
SYMATTR Value 12k
SYMBOL cap -64 896 R90
WINDOW 0 0 32 VBottom 2
WINDOW 3 32 32 VTop 2
SYMATTR InstName C1
SYMATTR Value 1n
SYMBOL Opamps\\uA741 32 528 M180
SYMATTR InstName U4
SYMBOL res -32 512 R90
WINDOW 0 0 56 VBottom 2
WINDOW 3 32 56 VTop 2
SYMATTR InstName R8
SYMATTR Value 330
SYMBOL res 192 512 R90
WINDOW 0 0 56 VBottom 2
WINDOW 3 32 56 VTop 2
SYMATTR InstName R9
SYMATTR Value 10k
SYMBOL diode 256 352 R0
SYMATTR InstName D1
SYMATTR Value 1N4148
SYMBOL diode 256 256 R0
SYMATTR InstName D3
SYMATTR Value 1N4148
SYMBOL diode 256 512 R0
SYMATTR InstName D4
SYMATTR Value 1N4148
SYMBOL diode 256 624 R0
SYMATTR InstName D5
SYMATTR Value 1N4148
SYMBOL res 256 112 R0
SYMATTR InstName R10
SYMATTR Value 12k
SYMBOL res 256 736 R0
SYMATTR InstName R11
SYMATTR Value 12k
SYMBOL npn 352 176 R0
SYMATTR InstName Q1
SYMATTR Value BD135P
SYMBOL npn 448 288 R0
SYMATTR InstName Q2
SYMATTR Value BD135P
SYMBOL pnp 352 768 M180
SYMATTR InstName Q9
SYMATTR Value BD136P
SYMBOL pnp 448 656 M180
SYMATTR InstName Q10
SYMATTR Value BD136P
SYMBOL res 624 464 R0
SYMATTR InstName R12
SYMATTR Value 1k
SYMBOL lowPass -288 448 R0
SYMATTR InstName X1
SYMBOL Opamps\\uA741 -2224 592 M180
SYMATTR InstName U2
SYMBOL Opamps\\uA741 -1696 592 R180
SYMATTR InstName U3
SYMBOL Opamps\\uA741 -640 512 M180
SYMATTR InstName U5
SYMBOL Opamps\\uA741 -128 736 M180
SYMATTR InstName U6
SYMBOL res -240 816 R0
SYMATTR InstName R13
SYMATTR Value 1k
SYMBOL res -80 768 R90
WINDOW 0 0 56 VBottom 2
WINDOW 3 32 56 VTop 2
SYMATTR InstName R14
SYMATTR Value 100k
SYMBOL res -2112 -64 R0
SYMATTR InstName R15
SYMATTR Value 20K
SYMBOL res -2112 64 R0
SYMATTR InstName R16
SYMATTR Value 10K
SYMBOL res 192 -160 R0
SYMATTR InstName R17
SYMATTR Value 100k
SYMBOL res 336 -48 R90
WINDOW 0 0 56 VBottom 2
WINDOW 3 32 56 VTop 2
SYMATTR InstName R18
SYMATTR Value 1Meg
SYMBOL Digital\\diffschmtbuf 112 864 R0
SYMATTR InstName A1
SYMBOL zener -1584 272 M180
WINDOW 0 24 64 Left 2
WINDOW 3 24 0 Left 2
SYMATTR InstName D6
SYMATTR Value 1N750
SYMATTR Description Diode
SYMATTR Type diode
SYMBOL res -1312 176 R0
SYMATTR InstName R19
SYMATTR Value 1Meg
SYMBOL current -1424 224 R0
WINDOW 123 0 0 Left 0
WINDOW 39 0 0 Left 0
SYMATTR InstName I1
SYMATTR Value SINE(0.6u 6u 5k)
SYMBOL current -1424 336 R0
WINDOW 123 0 0 Left 0
WINDOW 39 0 0 Left 0
SYMATTR InstName I2
SYMATTR Value PULSE(0 6u 1n 1n 1n 15.15u 30.30u)
TEXT -728 664 Left 2 !.lib UA741.sub
TEXT -728 720 Left 2 ;.ac dec 40 10 10meg
TEXT -728 760 Left 2 !.tran 0 19.3m 19m 0.01m
TEXT -2632 272 Left 2 ;We use Optocoupler to model the light transfer.\nIt is almost Identical to the LED model to the left.
TEXT -728 632 Left 2 !.lib LM311.sub
TEXT 64 592 Left 2 ;This is a POT
TEXT -1944 920 Left 2 ;These two must sustain more than 10 W
TEXT 640 208 Left 2 ;These transistors sustain about 1.5 A and about 8W
TEXT -1848 352 Left 2 ;A 10 W LED is enough for now
TEXT -1408 -96 Left 5 ;Reciever
TEXT -1816 -96 Left 5 ;Transmiter
TEXT -2648 376 Left 2 ;LM358N: Dual Op-Amp for transmiter stage
TEXT -728 792 Left 2 !.lib LM324.sub
LINE Normal -1824 704 -1648 912
LINE Normal -2000 768 -1904 912
LINE Normal 560 320 896 224
LINE Normal -1472 688 -1472 -112 1
